
#======================================================================
# CRYSTAL DATA
#----------------------------------------------------------------------
data_VESTA_phase_1

_chemical_name_common                  'MFI'
_cell_length_a                         20.090000
_cell_length_b                         19.738001
_cell_length_c                         13.142000
_cell_angle_alpha                      90.000000
_cell_angle_beta                       90.000000
_cell_angle_gamma                      90.000000
_cell_volume                           5211.281980
_space_group_name_H-M_alt              'P 1'
_space_group_IT_number                 1

loop_
_space_group_symop_operation_xyz
   'x, y, z'

loop_
   _atom_site_label
   _atom_site_occupancy
   _atom_site_fract_x
   _atom_site_fract_y
   _atom_site_fract_z
   _atom_site_adp_type
   _atom_site_U_iso_or_equiv
   _atom_site_type_symbol
   O1         1.0     0.501200     0.069900     0.701800    Uiso  ? O
   O2         1.0     0.498800     0.930100     0.298200    Uiso  ? O
   O3         1.0     0.998800     0.930100     0.201800    Uiso  ? O
   O4         1.0     0.001200     0.069900     0.798200    Uiso  ? O
   O5         1.0     0.498800     0.569900     0.298200    Uiso  ? O
   O6         1.0     0.501200     0.430100     0.701800    Uiso  ? O
   O7         1.0     0.001200     0.430100     0.798200    Uiso  ? O
   O8         1.0     0.998800     0.569900     0.201800    Uiso  ? O
   O9         1.0     0.387500     0.074300     0.800800    Uiso  ? O
   O10        1.0     0.612500     0.925700     0.199200    Uiso  ? O
   O11        1.0     0.112500     0.925700     0.300800    Uiso  ? O
   O12        1.0     0.887500     0.074300     0.699200    Uiso  ? O
   O13        1.0     0.612500     0.574300     0.199200    Uiso  ? O
   O14        1.0     0.387500     0.425700     0.800800    Uiso  ? O
   O15        1.0     0.887500     0.425700     0.699200    Uiso  ? O
   O16        1.0     0.112500     0.574300     0.300800    Uiso  ? O
   O17        1.0     0.399500     0.136600     0.625100    Uiso  ? O
   O18        1.0     0.600500     0.863400     0.374900    Uiso  ? O
   O19        1.0     0.100500     0.863400     0.125100    Uiso  ? O
   O20        1.0     0.899500     0.136600     0.874900    Uiso  ? O
   O21        1.0     0.600500     0.636600     0.374900    Uiso  ? O
   O22        1.0     0.399500     0.363400     0.625100    Uiso  ? O
   O23        1.0     0.899500     0.363400     0.874900    Uiso  ? O
   O24        1.0     0.100500     0.636600     0.125100    Uiso  ? O
   O25        1.0     0.397200     0.003400     0.632600    Uiso  ? O
   O26        1.0     0.602800     0.996600     0.367400    Uiso  ? O
   O27        1.0     0.102800     0.996600     0.132600    Uiso  ? O
   O28        1.0     0.897200     0.003400     0.867400    Uiso  ? O
   O29        1.0     0.602800     0.503400     0.367400    Uiso  ? O
   O30        1.0     0.397200     0.496600     0.632600    Uiso  ? O
   O31        1.0     0.897200     0.496600     0.867400    Uiso  ? O
   O32        1.0     0.102800     0.503400     0.132600    Uiso  ? O
   O33        1.0     0.329000     0.038500     0.972200    Uiso  ? O
   O34        1.0     0.671000     0.961500     0.027800    Uiso  ? O
   O35        1.0     0.171000     0.961500     0.472200    Uiso  ? O
   O36        1.0     0.829000     0.038500     0.527800    Uiso  ? O
   O37        1.0     0.671000     0.538500     0.027800    Uiso  ? O
   O38        1.0     0.329000     0.461500     0.972200    Uiso  ? O
   O39        1.0     0.829000     0.461500     0.527800    Uiso  ? O
   O40        1.0     0.171000     0.538500     0.472200    Uiso  ? O
   O41        1.0     0.329700     0.955500     0.815500    Uiso  ? O
   O42        1.0     0.670300     0.044500     0.184500    Uiso  ? O
   O43        1.0     0.170300     0.044500     0.315500    Uiso  ? O
   O44        1.0     0.829700     0.955500     0.684500    Uiso  ? O
   O45        1.0     0.670300     0.455500     0.184500    Uiso  ? O
   O46        1.0     0.329700     0.544500     0.815500    Uiso  ? O
   O47        1.0     0.829700     0.544500     0.684500    Uiso  ? O
   O48        1.0     0.170300     0.455500     0.315500    Uiso  ? O
   O49        1.0     0.257100     0.066300     0.810600    Uiso  ? O
   O50        1.0     0.742900     0.933700     0.189400    Uiso  ? O
   O51        1.0     0.242900     0.933700     0.310600    Uiso  ? O
   O52        1.0     0.757100     0.066300     0.689400    Uiso  ? O
   O53        1.0     0.742900     0.566300     0.189400    Uiso  ? O
   O54        1.0     0.257100     0.433700     0.810600    Uiso  ? O
   O55        1.0     0.757100     0.433700     0.689400    Uiso  ? O
   O56        1.0     0.242900     0.566300     0.310600    Uiso  ? O
   O57        1.0     0.291000     0.129600     0.106000    Uiso  ? O
   O58        1.0     0.709000     0.870400     0.894000    Uiso  ? O
   O59        1.0     0.209000     0.870400     0.606000    Uiso  ? O
   O60        1.0     0.791000     0.129600     0.394000    Uiso  ? O
   O61        1.0     0.709000     0.629600     0.894000    Uiso  ? O
   O62        1.0     0.291000     0.370400     0.106000    Uiso  ? O
   O63        1.0     0.791000     0.370400     0.394000    Uiso  ? O
   O64        1.0     0.209000     0.629600     0.606000    Uiso  ? O
   O65        1.0     0.203400     0.045500     0.027500    Uiso  ? O
   O66        1.0     0.796600     0.954500     0.972500    Uiso  ? O
   O67        1.0     0.296600     0.954500     0.527500    Uiso  ? O
   O68        1.0     0.703400     0.045500     0.472500    Uiso  ? O
   O69        1.0     0.796600     0.545500     0.972500    Uiso  ? O
   O70        1.0     0.203400     0.454500     0.027500    Uiso  ? O
   O71        1.0     0.703400     0.454500     0.472500    Uiso  ? O
   O72        1.0     0.296600     0.545500     0.527500    Uiso  ? O
   O73        1.0     0.293600     0.001000     0.156400    Uiso  ? O
   O74        1.0     0.706400     0.999000     0.843600    Uiso  ? O
   O75        1.0     0.206400     0.999000     0.656400    Uiso  ? O
   O76        1.0     0.793600     0.001000     0.343600    Uiso  ? O
   O77        1.0     0.706400     0.501000     0.843600    Uiso  ? O
   O78        1.0     0.293600     0.499000     0.156400    Uiso  ? O
   O79        1.0     0.793600     0.499000     0.343600    Uiso  ? O
   O80        1.0     0.206400     0.501000     0.656400    Uiso  ? O
   O81        1.0     0.107500     0.126500     0.088300    Uiso  ? O
   O82        1.0     0.892500     0.873500     0.911700    Uiso  ? O
   O83        1.0     0.392500     0.873500     0.588300    Uiso  ? O
   O84        1.0     0.607500     0.126500     0.411700    Uiso  ? O
   O85        1.0     0.892500     0.626500     0.911700    Uiso  ? O
   O86        1.0     0.107500     0.373500     0.088300    Uiso  ? O
   O87        1.0     0.607500     0.373500     0.411700    Uiso  ? O
   O88        1.0     0.392500     0.626500     0.588300    Uiso  ? O
   O89        1.0     0.084600     0.037000     0.944300    Uiso  ? O
   O90        1.0     0.915400     0.963000     0.055700    Uiso  ? O
   O91        1.0     0.415400     0.963000     0.444300    Uiso  ? O
   O92        1.0     0.584600     0.037000     0.555700    Uiso  ? O
   O93        1.0     0.915400     0.537000     0.055700    Uiso  ? O
   O94        1.0     0.084600     0.463000     0.944300    Uiso  ? O
   O95        1.0     0.584600     0.463000     0.555700    Uiso  ? O
   O96        1.0     0.415400     0.537000     0.444300    Uiso  ? O
   O97        1.0     0.130100     0.078100     0.767000    Uiso  ? O
   O98        1.0     0.869900     0.921900     0.233000    Uiso  ? O
   O99        1.0     0.369900     0.921900     0.267000    Uiso  ? O
   O100       1.0     0.630100     0.078100     0.733000    Uiso  ? O
   O101       1.0     0.869900     0.578100     0.233000    Uiso  ? O
   O102       1.0     0.130100     0.421900     0.767000    Uiso  ? O
   O103       1.0     0.630100     0.421900     0.733000    Uiso  ? O
   O104       1.0     0.369900     0.578100     0.267000    Uiso  ? O
   O105       1.0     0.072800     0.958900     0.783200    Uiso  ? O
   O106       1.0     0.927200     0.041100     0.216800    Uiso  ? O
   O107       1.0     0.427200     0.041100     0.283200    Uiso  ? O
   O108       1.0     0.572800     0.958900     0.716800    Uiso  ? O
   O109       1.0     0.927200     0.458900     0.216800    Uiso  ? O
   O110       1.0     0.072800     0.541100     0.783200    Uiso  ? O
   O111       1.0     0.572800     0.541100     0.716800    Uiso  ? O
   O112       1.0     0.427200     0.458900     0.283200    Uiso  ? O
   O113       1.0     0.220100     0.131300     0.645600    Uiso  ? O
   O114       1.0     0.779900     0.868700     0.354400    Uiso  ? O
   O115       1.0     0.279900     0.868700     0.145600    Uiso  ? O
   O116       1.0     0.720100     0.131300     0.854400    Uiso  ? O
   O117       1.0     0.779900     0.631300     0.354400    Uiso  ? O
   O118       1.0     0.220100     0.368700     0.645600    Uiso  ? O
   O119       1.0     0.720100     0.368700     0.854400    Uiso  ? O
   O120       1.0     0.279900     0.631300     0.145600    Uiso  ? O
   O121       1.0     0.491100     0.854800     0.716900    Uiso  ? O
   O122       1.0     0.508900     0.145200     0.283100    Uiso  ? O
   O123       1.0     0.008900     0.145200     0.216900    Uiso  ? O
   O124       1.0     0.991100     0.854800     0.783100    Uiso  ? O
   O125       1.0     0.508900     0.354800     0.283100    Uiso  ? O
   O126       1.0     0.491100     0.645200     0.716900    Uiso  ? O
   O127       1.0     0.991100     0.645200     0.783100    Uiso  ? O
   O128       1.0     0.008900     0.354800     0.216900    Uiso  ? O
   O129       1.0     0.368100     0.831100     0.774300    Uiso  ? O
   O130       1.0     0.631900     0.168900     0.225700    Uiso  ? O
   O131       1.0     0.131900     0.168900     0.274300    Uiso  ? O
   O132       1.0     0.868100     0.831100     0.725700    Uiso  ? O
   O133       1.0     0.631900     0.331100     0.225700    Uiso  ? O
   O134       1.0     0.368100     0.668900     0.774300    Uiso  ? O
   O135       1.0     0.868100     0.668900     0.725700    Uiso  ? O
   O136       1.0     0.131900     0.331100     0.274300    Uiso  ? O
   O137       1.0     0.426300     0.750000     0.643100    Uiso  ? O
   O138       1.0     0.573700     0.250000     0.356900    Uiso  ? O
   O139       1.0     0.073700     0.250000     0.143100    Uiso  ? O
   O140       1.0     0.926300     0.750000     0.856900    Uiso  ? O
   O141       1.0     0.321700     0.861100     0.956100    Uiso  ? O
   O142       1.0     0.678300     0.138900     0.043900    Uiso  ? O
   O143       1.0     0.178300     0.138900     0.456100    Uiso  ? O
   O144       1.0     0.821700     0.861100     0.543900    Uiso  ? O
   O145       1.0     0.678300     0.361100     0.043900    Uiso  ? O
   O146       1.0     0.321700     0.638900     0.956100    Uiso  ? O
   O147       1.0     0.821700     0.638900     0.543900    Uiso  ? O
   O148       1.0     0.178300     0.361100     0.456100    Uiso  ? O
   O149       1.0     0.241000     0.858200     0.799000    Uiso  ? O
   O150       1.0     0.759000     0.141800     0.201000    Uiso  ? O
   O151       1.0     0.259000     0.141800     0.299000    Uiso  ? O
   O152       1.0     0.741000     0.858200     0.701000    Uiso  ? O
   O153       1.0     0.759000     0.358200     0.201000    Uiso  ? O
   O154       1.0     0.241000     0.641800     0.799000    Uiso  ? O
   O155       1.0     0.741000     0.641800     0.701000    Uiso  ? O
   O156       1.0     0.259000     0.358200     0.299000    Uiso  ? O
   O157       1.0     0.294300     0.750000     0.057900    Uiso  ? O
   O158       1.0     0.705700     0.250000     0.942100    Uiso  ? O
   O159       1.0     0.205700     0.250000     0.557900    Uiso  ? O
   O160       1.0     0.794300     0.750000     0.442100    Uiso  ? O
   O161       1.0     0.197600     0.831300     0.000300    Uiso  ? O
   O162       1.0     0.802400     0.168700     0.999700    Uiso  ? O
   O163       1.0     0.302400     0.168700     0.500300    Uiso  ? O
   O164       1.0     0.697600     0.831300     0.499700    Uiso  ? O
   O165       1.0     0.802400     0.331300     0.999700    Uiso  ? O
   O166       1.0     0.197600     0.668700     0.000300    Uiso  ? O
   O167       1.0     0.697600     0.668700     0.499700    Uiso  ? O
   O168       1.0     0.302400     0.331300     0.500300    Uiso  ? O
   O169       1.0     0.094800     0.750000     0.020500    Uiso  ? O
   O170       1.0     0.905200     0.250000     0.979500    Uiso  ? O
   O171       1.0     0.405200     0.250000     0.520500    Uiso  ? O
   O172       1.0     0.594800     0.750000     0.479500    Uiso  ? O
   O173       1.0     0.080900     0.867000     0.927500    Uiso  ? O
   O174       1.0     0.919100     0.133000     0.072500    Uiso  ? O
   O175       1.0     0.419100     0.133000     0.427500    Uiso  ? O
   O176       1.0     0.580900     0.867000     0.572500    Uiso  ? O
   O177       1.0     0.919100     0.367000     0.072500    Uiso  ? O
   O178       1.0     0.080900     0.633000     0.927500    Uiso  ? O
   O179       1.0     0.580900     0.633000     0.572500    Uiso  ? O
   O180       1.0     0.419100     0.367000     0.427500    Uiso  ? O
   O181       1.0     0.117700     0.837000     0.740600    Uiso  ? O
   O182       1.0     0.882300     0.163000     0.259400    Uiso  ? O
   O183       1.0     0.382300     0.163000     0.240600    Uiso  ? O
   O184       1.0     0.617700     0.837000     0.759400    Uiso  ? O
   O185       1.0     0.882300     0.337000     0.259400    Uiso  ? O
   O186       1.0     0.117700     0.663000     0.740600    Uiso  ? O
   O187       1.0     0.617700     0.663000     0.759400    Uiso  ? O
   O188       1.0     0.382300     0.337000     0.240600    Uiso  ? O
   O189       1.0     0.211600     0.750000     0.691300    Uiso  ? O
   O190       1.0     0.788400     0.250000     0.308700    Uiso  ? O
   O191       1.0     0.288400     0.250000     0.191300    Uiso  ? O
   O192       1.0     0.711600     0.750000     0.808700    Uiso  ? O
   Si1        1.0     0.421400     0.071100     0.689800    Uiso  ? Al
   Si2        1.0     0.578600     0.928900     0.310200    Uiso  ? Si
   Si3        1.0     0.078600     0.928900     0.189800    Uiso  ? Si
   Si4        1.0     0.921400     0.071100     0.810200    Uiso  ? Si
   Si5        1.0     0.578600     0.571100     0.310200    Uiso  ? Si
   Si6        1.0     0.421400     0.428900     0.689800    Uiso  ? Si
   Si7        1.0     0.921400     0.428900     0.810200    Uiso  ? Si
   Si8        1.0     0.078600     0.571100     0.189800    Uiso  ? Si
   Si9        1.0     0.325900     0.033600     0.850000    Uiso  ? Si
   Si10       1.0     0.674100     0.966400     0.150000    Uiso  ? Si
   Si11       1.0     0.174100     0.966400     0.350000    Uiso  ? Si
   Si12       1.0     0.825900     0.033600     0.650000    Uiso  ? Si
   Si13       1.0     0.674100     0.533600     0.150000    Uiso  ? Si
   Si14       1.0     0.325900     0.466400     0.850000    Uiso  ? Si
   Si15       1.0     0.825900     0.466400     0.650000    Uiso  ? Si
   Si16       1.0     0.174100     0.533600     0.350000    Uiso  ? Si
   Si17       1.0     0.279200     0.053600     0.065500    Uiso  ? Si
   Si18       1.0     0.720800     0.946400     0.934500    Uiso  ? Si
   Si19       1.0     0.220800     0.946400     0.565500    Uiso  ? Si
   Si20       1.0     0.779200     0.053600     0.434500    Uiso  ? Si
   Si21       1.0     0.720800     0.553600     0.934500    Uiso  ? Si
   Si22       1.0     0.279200     0.446400     0.065500    Uiso  ? Si
   Si23       1.0     0.779200     0.446400     0.434500    Uiso  ? Si
   Si24       1.0     0.220800     0.553600     0.565500    Uiso  ? Si
   Si25       1.0     0.124600     0.051400     0.048100    Uiso  ? Si
   Si26       1.0     0.875400     0.948600     0.951900    Uiso  ? Si
   Si27       1.0     0.375400     0.948600     0.548100    Uiso  ? Si
   Si28       1.0     0.624600     0.051400     0.451900    Uiso  ? Si
   Si29       1.0     0.875400     0.551400     0.951900    Uiso  ? Si
   Si30       1.0     0.124600     0.448600     0.048100    Uiso  ? Si
   Si31       1.0     0.624600     0.448600     0.451900    Uiso  ? Si
   Si32       1.0     0.375400     0.551400     0.548100    Uiso  ? Si
   Si33       1.0     0.072100     0.036000     0.823300    Uiso  ? Si
   Si34       1.0     0.927900     0.964000     0.176700    Uiso  ? Si
   Si35       1.0     0.427900     0.964000     0.323300    Uiso  ? Si
   Si36       1.0     0.572100     0.036000     0.676700    Uiso  ? Si
   Si37       1.0     0.927900     0.536000     0.176700    Uiso  ? Si
   Si38       1.0     0.072100     0.464000     0.823300    Uiso  ? Si
   Si39       1.0     0.572100     0.464000     0.676700    Uiso  ? Si
   Si40       1.0     0.427900     0.536000     0.323300    Uiso  ? Si
   Si41       1.0     0.203400     0.068700     0.719700    Uiso  ? Si
   Si42       1.0     0.796600     0.931300     0.280300    Uiso  ? Si
   Si43       1.0     0.296600     0.931300     0.219700    Uiso  ? Si
   Si44       1.0     0.703400     0.068700     0.780300    Uiso  ? Si
   Si45       1.0     0.796600     0.568700     0.280300    Uiso  ? Si
   Si46       1.0     0.203400     0.431300     0.719700    Uiso  ? Si
   Si47       1.0     0.703400     0.431300     0.780300    Uiso  ? Si
   Si48       1.0     0.296600     0.568700     0.219700    Uiso  ? Si
   Si49       1.0     0.419500     0.827400     0.680500    Uiso  ? Si
   Si50       1.0     0.580500     0.172600     0.319500    Uiso  ? Si
   Si51       1.0     0.080500     0.172600     0.180500    Uiso  ? Si
   Si52       1.0     0.919500     0.827400     0.819500    Uiso  ? Si
   Si53       1.0     0.580500     0.327400     0.319500    Uiso  ? Si
   Si54       1.0     0.419500     0.672600     0.680500    Uiso  ? Si
   Si55       1.0     0.919500     0.672600     0.819500    Uiso  ? Si
   Si56       1.0     0.080500     0.327400     0.180500    Uiso  ? Si
   Si57       1.0     0.315200     0.876500     0.836100    Uiso  ? Si
   Si58       1.0     0.684800     0.123500     0.163900    Uiso  ? Si
   Si59       1.0     0.184800     0.123500     0.336100    Uiso  ? Si
   Si60       1.0     0.815200     0.876500     0.663900    Uiso  ? Si
   Si61       1.0     0.684800     0.376500     0.163900    Uiso  ? Si
   Si62       1.0     0.315200     0.623500     0.836100    Uiso  ? Si
   Si63       1.0     0.815200     0.623500     0.663900    Uiso  ? Si
   Si64       1.0     0.184800     0.376500     0.336100    Uiso  ? Si
   Si65       1.0     0.273300     0.827800     0.040200    Uiso  ? Si
   Si66       1.0     0.726700     0.172200     0.959800    Uiso  ? Si
   Si67       1.0     0.226700     0.172200     0.540200    Uiso  ? Si
   Si68       1.0     0.773300     0.827800     0.459800    Uiso  ? Si
   Si69       1.0     0.726700     0.327800     0.959800    Uiso  ? Si
   Si70       1.0     0.273300     0.672200     0.040200    Uiso  ? Si
   Si71       1.0     0.773300     0.672200     0.459800    Uiso  ? Si
   Si72       1.0     0.226700     0.327800     0.540200    Uiso  ? Si
   Si73       1.0     0.118500     0.827900     0.018300    Uiso  ? Si
   Si74       1.0     0.881500     0.172100     0.981700    Uiso  ? Si
   Si75       1.0     0.381500     0.172100     0.518300    Uiso  ? Si
   Si76       1.0     0.618500     0.827900     0.481700    Uiso  ? Si
   Si77       1.0     0.881500     0.327900     0.981700    Uiso  ? Si
   Si78       1.0     0.118500     0.672100     0.018300    Uiso  ? Si
   Si79       1.0     0.618500     0.672100     0.481700    Uiso  ? Si
   Si80       1.0     0.381500     0.327900     0.518300    Uiso  ? Si
   Si81       1.0     0.065700     0.879400     0.808700    Uiso  ? Si
   Si82       1.0     0.934300     0.120600     0.191300    Uiso  ? Si
   Si83       1.0     0.434300     0.120600     0.308700    Uiso  ? Si
   Si84       1.0     0.565700     0.879400     0.691300    Uiso  ? Si
   Si85       1.0     0.934300     0.379400     0.191300    Uiso  ? Si
   Si86       1.0     0.065700     0.620600     0.808700    Uiso  ? Si
   Si87       1.0     0.565700     0.620600     0.691300    Uiso  ? Si
   Si88       1.0     0.434300     0.379400     0.308700    Uiso  ? Si
   Si89       1.0     0.194700     0.828800     0.709200    Uiso  ? Si
   Si90       1.0     0.805300     0.171200     0.290800    Uiso  ? Si
   Si91       1.0     0.305300     0.171200     0.209200    Uiso  ? Si
   Si92       1.0     0.694700     0.828800     0.790800    Uiso  ? Si
   Si93       1.0     0.805300     0.328800     0.290800    Uiso  ? Si
   Si94       1.0     0.194700     0.671200     0.709200    Uiso  ? Si
   Si95       1.0     0.694700     0.671200     0.790800    Uiso  ? Si
   Si96       1.0     0.305300     0.328800     0.209200    Uiso  ? Si
   H2         1.0     0.501200     0.130000     0.701800    Uiso  ? H
